lys
     RDKit          3D

 25 24  0  0  1  0  0  0  0  0999 V2000
  -11.8750   35.0520 1280.7260 N   0  0  0  0  0  4  0  0  0  0  0  0
  -12.7150   34.0630 1280.1250 C   0  0  2  0  0  0  0  0  0  0  0  0
  -13.7870   33.5450 1281.0060 C   0  0  0  0  0  0  0  0  0  0  0  0
  -13.5480   33.5850 1282.2010 O   0  0  0  0  0  0  0  0  0  0  0  0
  -12.1510   33.1690 1279.0740 C   0  0  0  0  0  0  0  0  0  0  0  0
  -12.0360   33.6650 1277.6700 C   0  0  0  0  0  0  0  0  0  0  0  0
  -10.8410   34.4260 1277.2010 C   0  0  0  0  0  0  0  0  0  0  0  0
  -10.1530   34.0740 1275.9220 C   0  0  0  0  0  0  0  0  0  0  0  0
   -9.0890   34.9000 1275.4300 N   0  0  0  0  0  4  0  0  0  0  0  0
  -15.1390   33.4000 1280.5410 O   0  0  0  0  0  1  0  0  0  0  0  0
  -11.9375   34.9784 1281.7515 H   0  0  0  0  0  0  0  0  0  0  0  0
  -10.9002   34.9006 1280.4297 H   0  0  0  0  0  0  0  0  0  0  0  0
  -12.1822   35.9894 1280.4297 H   0  0  0  0  0  0  0  0  0  0  0  0
  -13.2810   34.6662 1279.3999 H   0  0  0  0  0  0  0  0  0  0  0  0
  -11.1373   32.8925 1279.3996 H   0  0  0  0  0  0  0  0  0  0  0  0
  -12.8903   32.3577 1279.0013 H   0  0  0  0  0  0  0  0  0  0  0  0
  -12.1122   32.7793 1277.0221 H   0  0  0  0  0  0  0  0  0  0  0  0
  -12.8295   34.4255 1277.6253 H   0  0  0  0  0  0  0  0  0  0  0  0
  -11.1568   35.4755 1277.1068 H   0  0  0  0  0  0  0  0  0  0  0  0
  -10.0838   34.1743 1277.9581 H   0  0  0  0  0  0  0  0  0  0  0  0
   -9.7368   33.0642 1276.0526 H   0  0  0  0  0  0  0  0  0  0  0  0
  -10.9424   34.2013 1275.1666 H   0  0  0  0  0  0  0  0  0  0  0  0
   -8.5711   35.3021 1276.2244 H   0  0  0  0  0  0  0  0  0  0  0  0
   -8.4501   34.3313 1274.8561 H   0  0  0  0  0  0  0  0  0  0  0  0
   -9.4816   35.6599 1274.8561 H   0  0  0  0  0  0  0  0  0  0  0  0
  1  2  1  0
  2  3  1  0
  2  5  1  0
  3  4  2  0
  3 10  1  0
  5  6  1  0
  6  7  1  0
  7  8  1  0
  8  9  1  0
  1 11  1  0
  1 12  1  0
  1 13  1  0
  2 14  1  6
  5 15  1  0
  5 16  1  0
  6 17  1  0
  6 18  1  0
  7 19  1  0
  7 20  1  0
  8 21  1  0
  8 22  1  0
  9 23  1  0
  9 24  1  0
  9 25  1  0
M  CHG  3   1   1   9   1  10  -1
M  END
$$$$
