Structure6
     RDKit          3D

 57 61  0  0  1  0  0  0  0  0999 V2000
   49.4054   69.5384   75.5389 O   0  0  0  0  0  0  0  0  0  0  0  0
   49.5960   70.1787   74.5060 C   0  0  0  0  0  0  0  0  0  0  0  0
   49.1322   71.5001   74.3398 N   0  0  0  0  0  0  0  0  0  0  0  0
   48.3759   72.1162   75.4190 C   0  0  0  0  0  0  0  0  0  0  0  0
   46.8833   71.9615   75.2413 C   0  0  0  0  0  0  0  0  0  0  0  0
   46.3726   72.7967   74.0900 C   0  0  0  0  0  0  0  0  0  0  0  0
   46.6083   74.1121   74.4016 F   0  0  0  0  0  0  0  0  0  0  0  0
   45.0032   72.6969   74.0804 F   0  0  0  0  0  0  0  0  0  0  0  0
   46.8678   72.5381   72.6392 C   0  0  1  0  0  0  0  0  0  0  0  0
   46.4809   71.1369   72.0997 C   0  0  0  0  0  0  0  0  0  0  0  0
   46.9154   70.0467   72.8911 O   0  0  0  0  0  0  0  0  0  0  0  0
   46.1030   73.4577   71.7912 O   0  0  0  0  0  0  0  0  0  0  0  0
   48.3598   72.8394   72.4099 C   0  0  0  0  0  0  0  0  0  0  0  0
   49.3965   72.3071   73.2057 C   0  0  0  0  0  0  0  0  0  0  0  0
   50.7406   72.6262   72.9295 C   0  0  0  0  0  0  0  0  0  0  0  0
   51.0842   73.4269   71.8432 C   0  0  0  0  0  0  0  0  0  0  0  0
   50.0809   73.9302   71.0311 C   0  0  0  0  0  0  0  0  0  0  0  0
   50.4899   74.9299   69.6923 Cl  0  0  0  0  0  0  0  0  0  0  0  0
   48.7428   73.6421   71.3060 C   0  0  0  0  0  0  0  0  0  0  0  0
   50.3239   69.5711   73.3792 C   0  0  0  0  0  0  0  0  0  0  0  0
   49.6854   69.0488   72.3105 N   0  0  0  0  0  0  0  0  0  0  0  0
   50.6999   68.6399   71.4944 N   0  0  0  0  0  0  0  0  0  0  0  0
   50.4933   68.0126   70.2527 C   0  0  0  0  0  0  0  0  0  0  0  0
   49.3795   67.6821   69.8692 O   0  0  0  0  0  0  0  0  0  0  0  0
   51.9440   68.9681   72.0000 C   0  0  0  0  0  0  0  0  0  0  0  0
   53.0372   68.7463   71.2335 N   0  0  0  0  0  0  0  0  0  0  0  0
   52.9137   68.2160   69.9617 C   0  0  0  0  0  0  0  0  0  0  0  0
   54.1159   68.1705   69.1104 C   0  0  0  0  0  0  0  0  0  0  0  0
   54.3838   69.2993   68.3197 C   0  0  0  0  0  0  0  0  0  0  0  0
   55.4636   69.3001   67.4466 C   0  0  0  0  0  0  0  0  0  0  0  0
   55.6850   70.3746   66.6787 F   0  0  0  0  0  0  0  0  0  0  0  0
   56.3023   68.1999   67.3470 C   0  0  0  0  0  0  0  0  0  0  0  0
   56.0555   67.0759   68.1349 C   0  0  0  0  0  0  0  0  0  0  0  0
   54.9657   67.0476   69.0248 C   0  0  0  0  0  0  0  0  0  0  0  0
   54.7238   65.8028   69.8317 C   0  0  0  0  0  0  0  0  0  0  0  0
   51.7318   67.8278   69.4481 C   0  0  0  0  0  0  0  0  0  0  0  0
   51.7395   69.4812   73.2507 C   0  0  0  0  0  0  0  0  0  0  0  0
   48.6648   71.6518   76.3693 H   0  0  0  0  0  0  0  0  0  0  0  0
   48.6617   73.1727   75.5033 H   0  0  0  0  0  0  0  0  0  0  0  0
   46.5934   70.9122   75.1362 H   0  0  0  0  0  0  0  0  0  0  0  0
   46.3915   72.3130   76.1571 H   0  0  0  0  0  0  0  0  0  0  0  0
   45.3885   71.0634   72.0337 H   0  0  0  0  0  0  0  0  0  0  0  0
   46.8464   71.0001   71.0737 H   0  0  0  0  0  0  0  0  0  0  0  0
   47.6719   69.6181   72.4318 H   0  0  0  0  0  0  0  0  0  0  0  0
   45.2195   73.5437   72.2014 H   0  0  0  0  0  0  0  0  0  0  0  0
   51.5357   72.2842   73.5872 H   0  0  0  0  0  0  0  0  0  0  0  0
   52.1262   73.6648   71.6494 H   0  0  0  0  0  0  0  0  0  0  0  0
   47.9853   74.0582   70.6426 H   0  0  0  0  0  0  0  0  0  0  0  0
   53.9813   68.9860   71.5333 H   0  0  0  0  0  0  0  0  0  0  0  0
   53.7451   70.1779   68.3589 H   0  0  0  0  0  0  0  0  0  0  0  0
   57.1381   68.2209   66.6546 H   0  0  0  0  0  0  0  0  0  0  0  0
   56.7168   66.2157   68.0449 H   0  0  0  0  0  0  0  0  0  0  0  0
   54.6263   66.0469   70.8945 H   0  0  0  0  0  0  0  0  0  0  0  0
   53.8138   65.3008   69.4882 H   0  0  0  0  0  0  0  0  0  0  0  0
   55.5538   65.0944   69.7385 H   0  0  0  0  0  0  0  0  0  0  0  0
   51.6063   67.4275   68.4503 H   0  0  0  0  0  0  0  0  0  0  0  0
   52.4843   69.8216   73.9555 H   0  0  0  0  0  0  0  0  0  0  0  0
  1  2  2  0
  2  3  1  0
  2 20  1  0
  3 14  1  0
  3  4  1  0
  4  5  1  0
  5  6  1  0
  6  7  1  0
  6  8  1  0
  6  9  1  0
  9 10  1  0
  9 12  1  6
  9 13  1  0
 10 11  1  0
 13 19  1  0
 13 14  2  0
 14 15  1  0
 15 16  2  0
 16 17  1  0
 17 18  1  0
 17 19  2  0
 20 37  1  0
 20 21  2  0
 21 22  1  0
 22 23  1  0
 22 25  1  0
 23 36  1  0
 23 24  2  0
 25 26  1  0
 25 37  2  0
 26 27  1  0
 27 28  1  0
 27 36  2  0
 28 34  1  0
 28 29  2  0
 29 30  1  0
 30 31  1  0
 30 32  2  0
 32 33  1  0
 33 34  2  0
 34 35  1  0
  4 38  1  0
  4 39  1  0
  5 40  1  0
  5 41  1  0
 10 42  1  0
 10 43  1  0
 11 44  1  0
 12 45  1  0
 15 46  1  0
 16 47  1  0
 19 48  1  0
 26 49  1  0
 29 50  1  0
 32 51  1  0
 33 52  1  0
 35 53  1  0
 35 54  1  0
 35 55  1  0
 36 56  1  0
 37 57  1  0
M  END
$$$$
