ref_lig
     RDKit          3D

 61 66  0  0  1  0  0  0  0  0999 V2000
   49.2359   69.5069   75.4607 O   0  0  0  0  0  0  0  0  0  0  0  0
   49.5476   70.2062   74.4997 C   0  0  0  0  0  0  0  0  0  0  0  0
   49.1884   71.5145   74.3757 N   0  0  0  0  0  0  0  0  0  0  0  0
   48.4648   72.1883   75.4503 C   0  0  0  0  0  0  0  0  0  0  0  0
   46.9508   72.0547   75.2765 C   0  0  0  0  0  0  0  0  0  0  0  0
   46.3765   72.8649   74.0968 C   0  0  0  0  0  0  0  0  0  0  0  0
   46.6249   74.1505   74.3646 F   0  0  0  0  0  0  0  0  0  0  0  0
   45.0545   72.6787   74.1550 F   0  0  0  0  0  0  0  0  0  0  0  0
   46.8751   72.5459   72.6467 C   0  0  1  0  0  0  0  0  0  0  0  0
   46.4212   71.1774   72.0742 C   0  0  0  0  0  0  0  0  0  0  0  0
   46.7921   70.0632   72.8506 O   0  0  0  0  0  0  0  0  0  0  0  0
   46.0688   73.4012   71.8543 O   0  0  0  0  0  0  0  0  0  0  0  0
   48.3861   72.8208   72.4025 C   0  0  0  0  0  0  0  0  0  0  0  0
   49.4374   72.2918   73.2129 C   0  0  0  0  0  0  0  0  0  0  0  0
   50.7868   72.6016   72.9218 C   0  0  0  0  0  0  0  0  0  0  0  0
   51.1273   73.3974   71.8202 C   0  0  0  0  0  0  0  0  0  0  0  0
   50.1090   73.9244   71.0164 C   0  0  0  0  0  0  0  0  0  0  0  0
   50.5023   74.9825   69.7161 Cl  0  0  0  0  0  0  0  0  0  0  0  0
   48.7639   73.6391   71.3055 C   0  0  0  0  0  0  0  0  0  0  0  0
   50.2741   69.5612   73.3603 C   0  0  0  0  0  0  0  0  0  0  0  0
   49.6822   68.9111   72.3694 N   0  0  0  0  0  0  0  0  0  0  0  0
   50.6883   68.6043   71.5327 N   0  0  0  0  0  0  0  0  0  0  0  0
   50.5540   67.9641   70.2537 C   0  0  0  0  0  0  0  0  0  0  0  0
   49.4278   67.6171   69.8967 O   0  0  0  0  0  0  0  0  0  0  0  0
   51.9142   69.0165   72.0217 C   0  0  0  0  0  0  0  0  0  0  0  0
   53.0473   68.8130   71.2338 N   0  0  0  0  0  0  0  0  0  0  0  0
   52.9409   68.2472   69.9668 C   0  0  0  0  0  0  0  0  0  0  0  0
   54.1363   68.1899   69.1374 C   0  0  0  0  0  0  0  0  0  0  0  0
   54.4218   69.3218   68.3721 C   0  0  0  0  0  0  0  0  0  0  0  0
   55.4675   69.2996   67.4514 C   0  0  0  0  0  0  0  0  0  0  0  0
   55.6336   70.3722   66.6608 F   0  0  0  0  0  0  0  0  0  0  0  0
   56.2982   68.1711   67.3335 C   0  0  0  0  0  0  0  0  0  0  0  0
   56.0621   67.0204   68.1208 C   0  0  0  0  0  0  0  0  0  0  0  0
   54.9578   67.0492   69.0287 C   0  0  0  0  0  0  0  0  0  0  0  0
   54.9316   65.8105   69.6498 N   0  0  0  0  0  0  0  0  0  0  0  0
   54.0096   65.3992   70.6933 C   0  0  0  0  0  0  0  0  0  0  0  0
   55.9300   65.0146   69.1002 C   0  0  0  0  0  0  0  0  0  0  0  0
   56.6837   65.7366   68.2164 C   0  0  0  0  0  0  0  0  0  0  0  0
   51.7623   67.8140   69.4646 C   0  0  0  0  0  0  0  0  0  0  0  0
   51.6985   69.5919   73.2414 C   0  0  0  0  0  0  0  0  0  0  0  0
   48.7550   71.7405   76.4122 H   0  0  0  0  0  0  0  0  0  0  0  0
   48.7224   73.2574   75.4224 H   0  0  0  0  0  0  0  0  0  0  0  0
   46.7146   70.9928   75.1133 H   0  0  0  0  0  0  0  0  0  0  0  0
   46.4907   72.4577   76.1907 H   0  0  0  0  0  0  0  0  0  0  0  0
   45.3244   71.1874   71.9911 H   0  0  0  0  0  0  0  0  0  0  0  0
   46.9274   71.0628   71.1043 H   0  0  0  0  0  0  0  0  0  0  0  0
   46.7165   70.2904   73.8112 H   0  0  0  0  0  0  0  0  0  0  0  0
   45.5232   73.9799   72.4438 H   0  0  0  0  0  0  0  0  0  0  0  0
   51.5831   72.2105   73.5722 H   0  0  0  0  0  0  0  0  0  0  0  0
   52.1824   73.6058   71.5894 H   0  0  0  0  0  0  0  0  0  0  0  0
   47.9791   74.0630   70.6618 H   0  0  0  0  0  0  0  0  0  0  0  0
   53.9733   69.0846   71.5939 H   0  0  0  0  0  0  0  0  0  0  0  0
   53.8196   70.2339   68.4962 H   0  0  0  0  0  0  0  0  0  0  0  0
   57.1382   68.1835   66.6234 H   0  0  0  0  0  0  0  0  0  0  0  0
   54.4575   65.5990   71.6779 H   0  0  0  0  0  0  0  0  0  0  0  0
   53.0705   65.9637   70.5963 H   0  0  0  0  0  0  0  0  0  0  0  0
   53.8023   64.3233   70.5963 H   0  0  0  0  0  0  0  0  0  0  0  0
   56.0911   63.9537   69.3420 H   0  0  0  0  0  0  0  0  0  0  0  0
   57.5860   65.3979   67.6862 H   0  0  0  0  0  0  0  0  0  0  0  0
   51.7201   67.3521   68.4671 H   0  0  0  0  0  0  0  0  0  0  0  0
   52.4381   69.9825   73.9559 H   0  0  0  0  0  0  0  0  0  0  0  0
  1  2  2  0
  2  3  1  0
  2 20  1  0
  3 14  1  0
  3  4  1  0
  4  5  1  0
  5  6  1  0
  6  7  1  0
  6  8  1  0
  6  9  1  0
  9 10  1  0
  9 12  1  6
  9 13  1  0
 10 11  1  0
 13 19  1  0
 13 14  2  0
 14 15  1  0
 15 16  2  0
 16 17  1  0
 17 18  1  0
 17 19  2  0
 20 40  1  0
 20 21  2  0
 21 22  1  0
 22 23  1  0
 22 25  1  0
 23 39  1  0
 23 24  2  0
 25 26  1  0
 25 40  2  0
 26 27  1  0
 27 28  1  0
 27 39  2  0
 28 34  1  0
 28 29  2  0
 29 30  1  0
 30 31  1  0
 30 32  2  0
 32 33  1  0
 33 38  1  0
 33 34  2  0
 34 35  1  0
 35 36  1  0
 35 37  1  0
 37 38  2  0
  4 41  1  0
  4 42  1  0
  5 43  1  0
  5 44  1  0
 10 45  1  0
 10 46  1  0
 11 47  1  0
 12 48  1  0
 15 49  1  0
 16 50  1  0
 19 51  1  0
 26 52  1  0
 29 53  1  0
 32 54  1  0
 36 55  1  0
 36 56  1  0
 36 57  1  0
 37 58  1  0
 38 59  1  0
 39 60  1  0
 40 61  1  0
M  END
$$$$
