CAT-4a
     RDKit          3D

 36 38  0  0  0  0  0  0  0  0999 V2000
   11.7155   -2.2816    1.2489 C   0  0  0  0  0  0  0  0  0  0  0  0
   13.0381   -2.6195    0.7079 N   0  0  0  0  0  0  0  0  0  0  0  0
   14.2057   -2.6014    1.3666 C   0  0  0  0  0  0  0  0  0  0  0  0
   14.3786   -2.3437    2.6660 N   0  0  0  0  0  0  0  0  0  0  0  0
   15.2286   -2.8858    0.5635 N   0  0  0  0  0  0  0  0  0  0  0  0
   14.8076   -3.2129   -0.8000 C   0  0  2  0  0  0  0  0  0  0  0  0
   15.3967   -2.2027   -1.8015 C   0  0  0  0  0  0  0  0  0  0  0  0
   15.9974   -2.6085   -3.0157 C   0  0  0  0  0  0  0  0  0  0  0  0
   16.4805   -1.6424   -3.9173 C   0  0  0  0  0  0  0  0  0  0  0  0
   16.3578   -0.2708   -3.6263 C   0  0  0  0  0  0  0  0  0  0  0  0
   15.7919    0.1718   -2.4127 C   0  0  0  0  0  0  0  0  0  0  0  0
   15.6399    1.6146   -2.0981 C   0  0  0  0  0  0  0  0  0  0  0  0
   15.4538    2.5838   -3.1120 C   0  0  0  0  0  0  0  0  0  0  0  0
   15.2099    3.9358   -2.7897 C   0  0  0  0  0  0  0  0  0  0  0  0
   15.1604    4.3485   -1.4470 C   0  0  0  0  0  0  0  0  0  0  0  0
   15.3892    3.4118   -0.4273 C   0  0  0  0  0  0  0  0  0  0  0  0
   15.6325    2.0660   -0.7583 C   0  0  0  0  0  0  0  0  0  0  0  0
   15.3278   -0.8153   -1.5134 C   0  0  0  0  0  0  0  0  0  0  0  0
   13.2876   -2.9675   -0.6530 C   0  0  0  0  0  0  0  0  0  0  0  0
   12.4113   -3.0211   -1.5243 O   0  0  0  0  0  0  0  0  0  0  0  0
   11.5248   -1.2189    1.1026 H   0  0  0  0  0  0  0  0  0  0  0  0
   10.9265   -2.8405    0.7450 H   0  0  0  0  0  0  0  0  0  0  0  0
   11.6590   -2.5032    2.3142 H   0  0  0  0  0  0  0  0  0  0  0  0
   15.3225   -2.3533    3.0553 H   0  0  0  0  0  0  0  0  0  0  0  0
   16.0917   -3.6532   -3.2801 H   0  0  0  0  0  0  0  0  0  0  0  0
   16.9372   -1.9475   -4.8486 H   0  0  0  0  0  0  0  0  0  0  0  0
   16.7044    0.4465   -4.3531 H   0  0  0  0  0  0  0  0  0  0  0  0
   15.4494    2.2872   -4.1504 H   0  0  0  0  0  0  0  0  0  0  0  0
   15.0281    4.6607   -3.5680 H   0  0  0  0  0  0  0  0  0  0  0  0
   14.9459    5.3789   -1.2001 H   0  0  0  0  0  0  0  0  0  0  0  0
   15.3642    3.7204    0.6078 H   0  0  0  0  0  0  0  0  0  0  0  0
   15.8121    1.3687    0.0406 H   0  0  0  0  0  0  0  0  0  0  0  0
   14.8644   -0.4921   -0.5938 H   0  0  0  0  0  0  0  0  0  0  0  0
   13.6372   -2.0531    3.3011 H   0  0  0  0  0  0  0  0  0  0  0  0
   16.1835   -2.8769    0.8602 H   0  0  0  0  0  0  0  0  0  0  0  0
   15.0368   -4.2442   -1.0683 H   0  0  0  0  0  0  0  0  0  0  0  0
  1  2  1  0
  1 21  1  0
  1 22  1  0
  1 23  1  0
  2  3  1  0
  2 19  1  0
  3  4  1  0
  3  5  2  0
  4 24  1  0
  4 34  1  0
  5  6  1  0
  5 35  1  0
  6  7  1  0
  6 19  1  0
  7  8  2  0
  7 18  1  0
  8  9  1  0
  8 25  1  0
  9 10  2  0
  9 26  1  0
 10 11  1  0
 10 27  1  0
 11 12  1  0
 11 18  2  0
 12 13  2  0
 12 17  1  0
 13 14  1  0
 13 28  1  0
 14 15  2  0
 14 29  1  0
 15 16  1  0
 15 30  1  0
 16 17  2  0
 16 31  1  0
 17 32  1  0
 18 33  1  0
 19 20  2  0
  6 36  1  6
M  CHG  1   5   1
M  END
$$$$
